      96
 i =        6, E =     -2444.6514601966
  O         1.0959407307        1.3224493015        0.8977877796
  O         3.3594805598        2.6281449051        1.8111704501
  O         3.3564509659        5.2376742544        0.8977711478
  O         1.0990313501        6.5428641224        1.8118362670
  O         1.1604560589        1.2859152818        5.4908420838
  O         3.4239190660        2.5911264407        4.5771328142
  O         3.4207793453        5.2003698840        5.4910394544
  O         1.1634352065        6.5060493761        4.5773001207
  H         1.9201508136        1.7710591280        1.2414995457
  H         1.1215528513        0.3845823110        1.2428344063
  H         4.1821033382        2.1515679901        1.5018096447
  H         3.3914906567        2.6103504145        2.8091712628
  H         4.1806832711        5.6861840060        1.2420973452
  H         3.3819721418        4.2997594614        1.2421884270
  H         1.9218000605        6.0668903904        1.5023064507
  H         1.1310673331        6.5249646883        2.8099760299
  H         0.3377608904        1.7623274057        5.1813818543
  H         1.1283393857        1.3035791151        6.4888789007
  H         2.5995879704        2.1427247376        4.9209900095
  H         3.3984791886        3.5289736931        4.9218576948
  H         2.5980824784        5.6765049692        5.1816104258
  H         3.3888478082        5.2184007029        6.4891432183
  H         0.3393227980        6.0573308344        4.9214829416
  H         1.1377415858        7.4439872674        4.9220391247
  O         5.6151062171        1.3225462973        0.8981153996
  O         7.8788169329        2.6281668464        1.8116075361
  O         7.8756952387        5.2374315148        0.8973369091
  O         5.6182123359        6.5426536702        1.8114338675
  O         5.6808594484        1.2858956622        5.4912800058
  O         7.9444912580        2.5910212865        4.5774532700
  O         7.9413438483        5.2005795653        5.4906351463
  O         5.6839352449        6.5062886762        4.5768645788
  H         6.4391277719        1.7711221323        1.2422752950
  H         5.6404271644        0.3846517337        1.2429518945
  H         8.7013725398        2.1519349868        1.5017975252
  H         7.9114084676        2.6102424504        2.8095878140
  H         8.6997764987        5.6860233792        1.2415933329
  H         7.9011056790        4.2996574754        1.2422330628
  H         6.4407081508        6.0663575224        1.5017216514
  H         5.6504282508        6.5249106225        2.8095476261
  H         4.8582325375        1.7619676405        5.1813688410
  H         5.6481611351        1.3036853265        6.4892962053
  H         7.1203499641        2.1426550279        4.9217615942
  H         7.9193448410        3.5288899439        4.9219661076
  H         7.1189194474        5.6770361484        5.1810220497
  H         7.9092319247        5.2184539287        6.4887134523
  H         4.8599754515        6.0574891136        4.9209770964
  H         5.6583532242        7.4440827302        4.9220803576
  O         1.0960224385        9.1517837962        0.8974341727
  O         3.3594834579       10.4569320438        1.8112709224
  O         3.3564141004       13.0664288156        0.8978037464
  O         1.0990578195       14.3721266494        1.8115246586
  O         1.1604284032        9.1139456045        5.4905261038
  O         3.4239604457       10.4196705129        4.5771641930
  O         3.4207742834       13.0288841199        5.4911391320
  O         1.1633523428       14.3340102028        4.5769446508
  H         1.9203029153        9.6002254587        1.2413691585
  H         1.1213474059        8.2139979193        1.2423800760
  H         4.1821831608        9.9805655016        1.5017550042
  H         3.3915218983       10.4389758696        2.8092716608
  H         4.1805232748       13.5152168373        1.2418856513
  H         3.3821748789       12.1285778330        1.2424138913
  H         1.9218532530       13.8962901390        1.5019617975
  H         1.1309837723       14.3540586720        2.8096461441
  H         0.3377064583        9.5902252604        5.1810343918
  H         1.1284240069        9.1317811438        6.4885447183
  H         2.5997553847        9.9709920726        4.9207745877
  H         3.3982797950       11.3574536092        4.9220810987
  H         2.5980002044       13.5048122457        5.1815541584
  H         3.3888187307       13.0470749931        6.4892434612
  H         0.3391701019       13.8854613159        4.9213468149
  H         1.1379457779       15.2718632272        4.9215843208
  O         5.6151955391        9.1518879509        0.8977548953
  O         7.8788227096       10.4569507096        1.8117084849
  O         7.8756493214       13.0661842569        0.8973719644
  O         5.6182321067       14.3719262735        1.8111148051
  O         5.6808367422        9.1139287033        5.4909664828
  O         7.9445376725       10.4195630224        4.5774875769
  O         7.9413345638       13.0290927181        5.4907347139
  O         5.6838520052       14.3342543053        4.5765064243
  H         6.4392860494        9.6002947509        1.2421403685
  H         5.6402277609        8.2140812534        1.2424897131
  H         8.7014550136        9.9809250821        1.5017427235
  H         7.9114413550       10.4388662419        2.8096885604
  H         8.6996063720       13.5150496157        1.2413819718
  H         7.9013011878       12.1284733220        1.2424573509
  H         6.4407571273       13.8957615624        1.5013705971
  H         5.6503400765       14.3540110671        2.8092143450
  H         4.8581838609        9.5898654667        5.1810257122
  H         5.6482509920        9.1318911963        6.4889642529
  H         7.1205204829        9.9709215486        4.9215480390
  H         7.9191465611       11.3573690423        4.9221904752
  H         7.1188343230       13.5053439928        5.1809656119
  H         7.9091976991       13.0471260694        6.4888125398
  H         4.8598227918       13.8856224320        4.9208442389
  H         5.6585579275       15.2719657201        4.9216277075
