     288
 i =  100000 ,E =       -1.7944344700        0.0000000000 st elem       1   99999
   O         1.0612008376        1.4365972903        1.0539186384
   H         0.2309213534        1.8249237394        1.4643078554
   H         1.0807969094        0.4979630356        1.3164235729
   O         3.1218115330        2.8090730207        2.0922807088
   H         2.4249637477        2.2418832034        1.7235429089
   H         3.9160045613        2.3298141584        1.7926266929
   O         1.0751365283        1.6275591536        5.6218042213
   H         1.0816989979        0.6916491086        5.2878192151
   H         1.8535614556        2.0555003023        5.2721391333
   O         3.6299635268        2.9339360179        5.0690216334
   H         3.7071608356        2.9683742125        4.1008109952
   H         3.5331681523        3.8967311689        5.2690056911
   O         3.3777208072        5.5134702308        1.5796725850
   H         2.4692923111        5.8608855823        1.6463514672
   H         3.2407679811        4.5518713169        1.8152300257
   O         1.0474859234        6.6994558984        2.5003563082
   H         0.2203626330        6.2512763035        2.1596877799
   H         1.1351199312        6.6254510157        3.4710485530
   O         3.5362772373        5.5532465379        5.8832782929
   H         3.5745616443        5.6681967695        6.8558030307
   H         4.3511366224        6.0539065017        5.5880411169
   O         1.0465374287        6.6779748577        5.2512833914
   H         1.1117929347        7.6547952988        5.4388298083
   H         1.9251088407        6.2732013528        5.4811794755
   O         1.3805703818        9.0896567801        1.3931142825
   H         0.5543348219        9.5403971482        1.6958198458
   H         1.3362213110        8.1972860663        1.8424512075
   O         3.8924705585       10.3385217192        2.2617823841
   H         3.1457934577        9.8760029034        1.8320197533
   H         4.6904459227        9.8732661506        1.9627420736
   O         1.4552128121        9.4008658699        5.8464746724
   H         2.2050942439       10.0007427048        5.6509377439
   H         0.7198498646        9.7566265618        5.3420271287
   O         3.6221548581       10.8878304094        4.9839328872
   H         4.3612644375       10.2579883574        5.2156244789
   H         3.5795761844       10.6738984310        4.0213207068
   O         3.2638531710       13.1310688205        1.3924468047
   H         3.4210930798       12.1725576182        1.5970901556
   H         4.1452551727       13.4717143202        1.6177641532
   O         0.9411230017       14.5763439896        2.0814765512
   H         0.9066586714       14.6527529509        3.0522506632
   H         1.7647367183       14.0776999210        1.9316544537
   O         2.9967312793       13.2988927145        5.7717883765
   H         3.8684407227       13.5424123357        5.3916337138
   H         2.9934853015       12.3296524736        5.5989194204
   O         1.0075071981       14.6770024122        4.6801121223
   H         0.2365139662       14.1814629285        4.9580181977
   H         1.7320319598       14.1528577149        5.0329861341
   O         5.4171425155        1.4760004862        1.2029427058
   H         5.3449365406        1.7031685036        0.2749261588
   H         6.2984469627        1.8035410975        1.4538755312
   O         7.7744985774        2.3320027902        2.0356437216
   H         7.7930945718        2.1691135497        3.0112085545
   H         8.6369597967        1.9020975063        1.7425908924
   O         5.6638760266        1.0133420628        5.9257748638
   H         5.6458893999        0.9952813488        6.8994961574
   H         4.8560918125        1.6142953747        5.7493389399
   O         7.8678071654        2.2972029315        4.9090114961
   H         8.6716362102        1.8205660286        5.1738118371
   H         7.1670224503        1.7913669587        5.3651744820
   O         7.5969820390        4.9377435382        1.0012946815
   H         6.9670507470        5.3611152313        1.6191149919
   H         7.6073923989        3.9930627053        1.3265729916
   O         5.7252583797        6.4669979417        2.5374524396
   H         5.8547291252        7.2137307084        1.8749665391
   H         4.8707822823        6.1048635609        2.1710814179
   O         7.5999880590        4.8648044917        5.9495000302
   H         8.3616670261        5.2430673490        5.4679336419
   H         7.5882017535        3.9693296014        5.6067424784
   O         5.7385302893        6.7099050822        5.2566368025
   H         5.8735449757        6.6121530229        4.3101186392
   H         6.3540439758        6.0616305657        5.6675518716
   O         6.1540465787        8.7641819525        1.2703755936
   H         6.8048901647        9.4209822270        1.5267288007
   H         6.2747902236        8.7281140165        0.3063879533
   O         8.0417735047       10.4055532336        2.2040183903
   H         8.8654264085       10.0196112426        1.9719466728
   H         8.0085837922       10.3725038822        3.1859375854
   O         5.4258120722        9.1577191386        5.9843261377
   H         5.5468724728        8.2055545198        5.6684316501
   H         5.4970709448        9.0618943554        6.9546032215
   O         7.9209504245       10.1895069990        5.0333956593
   H         7.9555002249       11.0916514472        5.3146898554
   H         6.9937792678       10.0187771888        5.1854131062
   O         7.9632753310       13.0259721079        1.1825446751
   H         7.8733640280       12.8427437978        0.2573799598
   H         7.9871508500       12.1079989244        1.5726472364
   O         5.6204996763       14.5712141203        2.1763403986
   H         5.4918029482       15.4763802618        1.8031621527
   H         6.5257298715       14.3829852912        1.8322264304
   O         7.7601536550       12.8303010472        5.4011135367
   H         8.4936906812       13.4441851565        5.1377504340
   H         6.9563067722       13.3168517032        5.1100802039
   O         5.4519791913       14.0598176505        4.8056911707
   H         5.3361084891       14.2180389860        3.8498648800
   H         5.3908223783       14.9759260132        5.1161473327
   O        10.1516532669        1.3180946931        1.2072848049
   H        10.9572057411        1.7877695111        1.4238499168
   H        10.3333982496        0.4602860458        1.6037340630
   O        12.4053057721        2.3262487210        2.2953160160
   H        12.3260036692        2.4450713243        3.2867069167
   H        12.4530005146        3.2648208031        1.9961557496
   O        10.1463225859        1.4116458917        5.9005696446
   H        10.0686127503        1.1458747813        6.8403629353
   H        10.2664296805        0.5451446262        5.5024442761
   O        12.3497845766        2.7200606193        4.9312163190
   H        11.6551547627        2.0824537419        5.1534897724
   H        13.1529731065        2.2431621786        5.3015015475
   O        12.4563172747        5.1264265501        1.5263240226
   H        11.7307269598        5.7787224816        1.7677871280
   H        12.3584564804        4.9381048855        0.6053515586
   O        10.1542226575        6.4765335835        1.9156875986
   H         9.4497006876        6.0768910273        1.4183775750
   H        10.0072728515        6.2507339580        2.8152456262
   O        12.3505594503        5.4223641193        6.1031144391
   H        12.2283424039        4.6693057903        5.5575393754
   H        13.1301719753        5.8871792920        5.7256072083
   O         9.9473532592        6.2029765293        4.9863170197
   H         9.8290659701        7.0971641512        5.3112949939
   H        10.7924486788        6.0302654167        5.4393796543
   O        10.3178836095        9.1401029332        1.4738164649
   H        10.3447236879        8.1719187176        1.6576535691
   H        10.0323382864        9.2016192270        0.5313070925
   O        12.5214234304       10.4011264060        2.3619943802
   H        11.7347431927        9.9094570594        2.0964175457
   H        12.3468673253       11.2984059081        1.9741772782
   O        10.2574368869        9.1177927932        6.0894411435
   H        10.2805664016        9.4178668791        7.0060014084
   H         9.3713518159        9.4151176502        5.8330373483
   O        12.6208024847       10.4126524260        5.0579869220
   H        12.4881256421       10.3680030941        4.1194349960
   H        11.8458020205        9.9927320980        5.3193752536
   O        12.3348687611       12.9324685670        1.5017880754
   H        12.3364612484       12.9592231662        0.4992708439
   H        13.1060955987       13.4511190125        1.6946317048
   O        10.2515036736       14.3434216044        2.2507022787
   H        10.9715432047       13.7883013594        1.8848945372
   H         9.4310695232       13.9220553979        1.9053958512
   O        12.4477802559       13.1716865699        5.6522178221
   H        12.6755821629       13.1803118971        6.5844186297
   H        12.4657781731       12.2284003783        5.3956316640
   O        10.0721992223       14.3215612110        5.0139022786
   H        10.8321526571       13.8071516422        5.3058137324
   H        10.2928724680       14.4960251837        4.1049366270
   O         1.0967616374        0.8760642735        8.6452435844
   H         0.1667964401        1.1959710369        8.7742918897
   H         1.2267601861        1.1537878962        7.7141597563
   O         2.9014241210        2.9282546999        9.4880216686
   H         2.1531993424        2.3781480359        9.1784532371
   H         2.7567417180        2.8540941684       10.4886602533
   O         0.8685341698        1.2026538998       13.1670887082
   H         1.5256496946        1.8274070302       12.8307594583
   H         0.8761134773        1.3653624897       14.1355789275
   O         2.8482570071        2.7304269449       12.3293873322
   H         3.6241739148        2.3031119837       12.6703212884
   H         2.9005391681        3.6123048028       12.6972924598
   O         3.5604856723        5.3464962414        8.4835627415
   H         3.3987813590        4.4263023046        8.7187132590
   H         2.7439668986        5.7874506276        8.7705710916
   O         1.1231179692        6.3207169123        9.4835412561
   H         1.0885582585        6.2570225066       10.4354730480
   H         0.2622440238        5.9796078847        9.1686721179
   O         3.2013100968        5.4491795619       13.5923062905
   H         3.9376945570        5.8293234977       13.0810450284
   H         3.5092087171        5.6536387643       14.4709862424
   O         0.8584106443        6.2477888028       12.4523478489
   H         1.6008966486        5.9486762619       12.9955537435
   H         0.8344360271        7.1786216165       12.7210059175
   O         1.3448610808        9.0614853620        8.6640841227
   H         1.5049066522        8.1415411391        8.9048686876
   H         1.2385128524        8.9210243786        7.7088754684
   O         3.1903971780       10.6040927109       10.0233078128
   H         3.2912842541       11.4099957468        9.5061622129
   H         2.3869674688       10.1535717526        9.6551839294
   O         1.3142752810        8.9489038322       13.2368187204
   H         1.4226781421        9.1528915984       14.1580311218
   H         2.1006593999        9.3879988981       12.8202643931
   O         3.4230770446       10.5989225587       12.8461470717
   H         3.6196463830       11.4819073116       13.2381849042
   H         3.6337285360       10.7101427214       11.9235729296
   O         3.5230253820       12.8222089604        8.4586392688
   H         4.3234058167       13.3352947262        8.6717530292
   H         3.3095441053       13.0151492266        7.5347818742
   O         1.2766265820       14.0930329616       10.0207643108
   H         2.0314449737       13.8045114270        9.5055051386
   H         1.1586207197       15.0012836509        9.6839456467
   O         3.2984268359       13.3607663909       13.3429724633
   H         3.2787325330       13.4895125233       14.2924433945
   H         2.3584479719       13.3580967205       13.1604688022
   O         0.6722000063       13.9113784407       12.6385470607
   H         0.5780878852       14.8895495860       12.8060619391
   H         1.0497605573       13.8977079708       11.7618381128
   O         5.3479983786        1.4383424175        8.5188952541
   H         4.5745690011        1.9761589651        8.7483642691
   H         6.0372981408        1.9482687998        8.9540948974
   O         8.0613079402        2.6165016797        9.3228617755
   H         8.8335838215        2.1324299772        8.9377947381
   H         8.0878261244        3.4752768073        8.8294347964
   O         5.4648089668        1.5184860781       13.1756821375
   H         6.3076925854        1.7511895896       12.7753409144
   H         5.4816674960        0.5590302394       13.1097625017
   O         7.7266543377        2.6520210568       12.0148799782
   H         7.6552443993        3.5900042606       12.2283606800
   H         7.8982752221        2.6781331715       11.0517530528
   O         7.9546331973        5.2781043594        8.6526900677
   H         7.8886729056        5.3395536056        7.7053272194
   H         7.0409857511        5.5270219618        8.8675454993
   O         5.6819069806        6.6051940279        9.4904098196
   H         4.8810190350        6.2191694644        9.1122857537
   H         5.5201649969        7.5511829314        9.2162162433
   O         7.6231788524        5.4769002148       12.9714149711
   H         7.5631090081        5.3261133214       13.9388175257
   H         8.5060461516        5.8449313086       12.8895600636
   O         5.2869971128        6.4047394038       12.3202296415
   H         5.2121109613        6.1980245461       11.3817908649
   H         6.1507263866        5.9862062527       12.4986797561
   O         5.2452350140        9.1415239348        8.8888824597
   H         4.4938310139        9.7784686368        9.0154106043
   H         6.0464806892        9.6495521330        9.2062402862
   O         7.4982680747       10.4760498464        9.3365811150
   H         7.4182335747       11.4118151371        9.0481155094
   H         8.3474735461       10.2391931239        8.9499018162
   O         5.9211770182        8.8555931900       13.3446101779
   H         5.1303246445        9.3941504319       13.5050764367
   H         5.5677448365        8.0200019274       12.9308468134
   O         7.9661179332       10.1283783473       12.1434565404
   H         7.1638608349        9.7052922326       12.5471211484
   H         7.8531191512       10.0337908357       11.1745873552
   O         7.8162272872       12.9819486702        8.4043673713
   H         7.7922423831       12.9872672129        7.4295185032
   H         7.0825328264       13.5689153784        8.6583408340
   O         5.6686979096       14.4605280939        9.3380863687
   H         5.7558188505       15.3576331631        8.9766672300
   H         5.5016168224       14.6146862682       10.2574737243
   O         7.5595078784       12.8155375306       13.0304606820
   H         7.7817324625       11.9699937112       12.6157718762
   H         8.3275141784       13.3462334287       12.7186735678
   O         5.5513377874       14.3986785424       11.9548321090
   H         6.2409206676       13.7246561735       12.1761291154
   H         4.7467106165       14.0382777325       12.3534515502
   O        10.1406659853        0.7554228012        8.4136557030
   H        10.0128772791       -0.0983644560        8.8233888625
   H        11.0165441423        1.0293159429        8.6552791609
   O        12.2908123941        2.3151876127        9.2195228331
   H        12.2287592929        3.2864177003        8.9768140707
   H        12.4029812252        2.3383906699       10.2226325518
   O         9.8772134871        1.0363421161       12.9742281198
   H         9.1357009292        1.5324891632       12.6602203848
   H         9.7447111271        1.2008118001       13.9164482139
   O        12.0783539054        2.3657182715       12.0011685784
   H        11.2834393968        1.8225515630       12.1234001560
   H        12.7942856239        1.8522431521       12.3905953332
   O        12.2188602944        5.0715032805        8.7750854829
   H        11.4278373560        5.5733122903        9.0488933281
   H        12.2211861811        5.2597965354        7.8404526037
   O        10.0443062856        6.7074088091        9.6031546904
   H         9.9014600074        6.6401968305       10.5222110903
   H         9.2094262164        6.3280530026        9.2558265311
   O        12.1903505356        4.7218876608       13.4135015748
   H        12.0417867731        3.8711463415       12.9081745272
   H        13.0638612693        4.9777531253       13.0436027004
   O        10.2571395982        6.4847686030       12.4043127489
   H        10.9086100889        5.9857867812       12.9191087495
   H        10.4175675745        7.4204331380       12.6439811798
   O        10.1334423518        9.5337913066        8.8572124882
   H        10.0843372463        8.5804778963        9.0251295045
   H        11.0055661310        9.7842603758        9.2863618481
   O        12.6502672588       10.4381798624        9.6117917108
   H        12.7856736178       11.2736287977        9.0976325376
   H        13.4353008044        9.9255675629        9.3114259638
   O        10.2487086706        9.2155166458       13.4885163356
   H         9.4920160913        9.6011475610       13.0008299657
   H        11.0230111611        9.6201921515       13.0783233444
   O        12.3462676193       10.3780293842       12.3940284847
   H        12.3115460251       10.4484144429       11.4195786264
   H        13.2094648652        9.9790483883       12.5433149810
   O        12.8952019718       12.9041272281        8.4299369860
   H        12.0515937545       13.1083897247        8.8523804898
   H        13.5830545718       13.1628801689        9.0628491825
   O        10.3042961373       13.4809932067        9.5032864818
   H         9.4502146751       13.1370346370        9.1838853391
   H        10.2366483869       13.5436140201       10.4227493938
   O        12.0470528787       12.7166916646       13.6038802042
   H        12.1665415475       11.8026965545       13.3253823009
   H        12.8297326694       13.1387733568       13.2226082551
   O         9.8603816410       13.8803480056       12.2814591856
   H        10.0035999497       14.8268109937       12.3077826147
   H        10.6202335649       13.4232717225       12.6993895593
