    8
scf done:    -0.026701 - optimized PM3
 H     0.000000     0.000000     0.000000
 N     0.000000     0.000000     1.002756
 H     0.953551     0.000000     1.318907
 H    -0.437897     0.844952     1.318526
 C    -0.792136    -1.290866     1.564050
 O    -0.034068    -1.994002     2.236951
 N    -2.026147    -1.210858     1.132874
 H    -2.605145    -1.959660     1.421738
